64
P4
 P    0.393862   13.224436    6.670877
 P   14.051117   13.224436    6.670877
 P    9.498698   13.224436    6.670877
 P    4.946280   13.224436    6.670877
 P    0.393862    3.306109    6.670877
 P   14.051117    3.306109    6.670877
 P    9.498698    3.306109    6.670877
 P    4.946280    3.306109    6.670877
 P    0.393862    6.612218    6.670877
 P   14.051117    6.612218    6.670877
 P    9.498698    6.612218    6.670877
 P    4.946280    6.612218    6.670877
 P    0.393862    9.918327    6.670877
 P   14.051117    9.918327    6.670877
 P    9.498698    9.918327    6.670877
 P    4.946280    9.918327    6.670877
 P    4.158557   13.224436    4.550224
 P   17.815811   13.224436    4.550224
 P   13.263393   13.224436    4.550224
 P    8.710975   13.224436    4.550224
 P    4.158557    3.306109    4.550224
 P   17.815811    3.306109    4.550224
 P   13.263393    3.306109    4.550224
 P    8.710975    3.306109    4.550224
 P    4.158557    6.612218    4.550224
 P   17.815811    6.612218    4.550224
 P   13.263393    6.612218    4.550224
 P    8.710975    6.612218    4.550224
 P    4.158557    9.918327    4.550224
 P   17.815811    9.918327    4.550224
 P   13.263393    9.918327    4.550224
 P    8.710975    9.918327    4.550224
 P    2.670071    1.653054    4.550224
 P   16.327324    1.653054    4.550224
 P   11.774906    1.653054    4.550224
 P    7.222489    1.653054    4.550224
 P    2.670071    4.959164    4.550224
 P   16.327324    4.959164    4.550224
 P   11.774906    4.959164    4.550224
 P    7.222489    4.959164    4.550224
 P    2.670071    8.265272    4.550224
 P   16.327324    8.265272    4.550224
 P   11.774906    8.265272    4.550224
 P    7.222489    8.265272    4.550224
 P    2.670071   11.571382    4.550224
 P   16.327324   11.571382    4.550224
 P   11.774906   11.571382    4.550224
 P    7.222489   11.571382    4.550224
 P    1.882347    1.653054    6.670877
 P   15.539602    1.653054    6.670877
 P   10.987184    1.653054    6.670877
 P    6.434766    1.653054    6.670877
 P    1.882347    4.959164    6.670877
 P   15.539602    4.959164    6.670877
 P   10.987184    4.959164    6.670877
 P    6.434766    4.959164    6.670877
 P    1.882347    8.265272    6.670877
 P   15.539602    8.265272    6.670877
 P   10.987184    8.265272    6.670877
 P    6.434766    8.265272    6.670877
 P    1.882347   11.571382    6.670877
 P   15.539602   11.571382    6.670877
 P   10.987184   11.571382    6.670877
 P    6.434766   11.571382    6.670877
